/*--------------------------------*- C++ -*----------------------------------*\
  =========                 |
  \\      /  F ield         | OpenFOAM: The Open Source CFD Toolbox
   \\    /   O peration     | Website:  https://openfoam.org
    \\  /    A nd           | Version:  6
     \\/     M anipulation  |
\*---------------------------------------------------------------------------*/
FoamFile
{
    version     2.0;
    format      ascii;
    class       dictionary;
    location    "constant";
    object      transportProperties;
}
// * * * * * * * * * * * * * * * * * * * * * * * * * * * * * * * * * * * * * //

phases (phase1 phase2);

phase1
{
    transportModel  Newtonian;
    nu              2.967e-07;
    rho             6093;
    cp  381.0;//500;
    cpsolid  381.0;//500;
    kappa  32.0; 
    kappasolid  33.5; 
    Tsolidus    302.4;//Fusion temperature is 302.78
    Tliquidus   303.2;
    LatentHeat  8.016e4;//270000;
    beta    1.2e-4;
}

phase2
{
    transportModel  Newtonian;
    nu              1.48e-05;
    rho             1;
    cp  1000;
    cpsolid  381.0;//500;
    kappa  1.0;
kappasolid  1.0;
    Tsolidus    1.0;
    Tliquidus   10.0;
    LatentHeat  1.0;
    beta    5.0e-4;
}

sigma            1.5;
dsigmadT	-2e-4;

p0		100000.0;
Tvap 3000.0;
Mm 0.05;
LatentHeatVap 6000000.0;

// ************************************************************************* //
